Circuit: * C:\Users\vbogd\OneDrive\Documents\e4e\rct_tower_system_hardware\tower_battery\simulations\rct_battery.asc

Direct Newton iteration for .op point succeeded.

Date: Tue Nov 07 14:11:41 2023
Total elapsed time: 32.791 seconds.

tnom = 27
temp = 100
method = modified trap
totiter = 18000540
traniter = 18000519
tranpoints = 9000184
accept = 9000154
rejected = 30
matrix size = 15
fillins = 0
solver = Normal
Matrix Compiler1: 506 bytes object code size  0.1/0.1/[0.1]
Matrix Compiler2: off  [0.1]/0.1/0.1

