Circuit: * C:\Users\vbogd\OneDrive\Documents\e4e\rct_tower_system_hardware\tower_battery\simulations\rct_battery.asc

Direct Newton iteration for .op point succeeded.

Date: Fri Nov 03 13:36:18 2023
Total elapsed time: 18.900 seconds.

tnom = 27
temp = 100
method = modified trap
totiter = 1800768
traniter = 1800747
tranpoints = 900227
accept = 900175
rejected = 52
matrix size = 15
fillins = 0
solver = Normal
Matrix Compiler1: 506 bytes object code size  0.3/0.2/[0.1]
Matrix Compiler2: off  [0.2]/0.3/0.3

