Circuit: * C:\Users\vbogd\OneDrive\Documents\rct_tower_battery\simulations\rct_battery.asc

Direct Newton iteration for .op point succeeded.

Date: Fri Oct 20 20:42:48 2023
Total elapsed time: 28.069 seconds.

tnom = 27
temp = 90
method = modified trap
totiter = 3600704
traniter = 3600682
tranpoints = 1800199
accept = 1800159
rejected = 40
matrix size = 15
fillins = 0
solver = Normal
Matrix Compiler1: 506 bytes object code size  0.1/0.1/[0.1]
Matrix Compiler2: off  [0.1]/0.2/0.1

